* mydiode [ZENER version]
.model mydiode D(IS=8.09f RS=64.5 N=3.00 Bv=8.1)
*                                        ^^ = Reverse Breakdown Voltage
