* mydiode [one random model I found around]
.model mydiode D(IS=8.09f RS=64.5 N=3.00)
